Version 4
SHEET 1 880 680
WIRE 336 112 224 112
WIRE 336 128 336 112
WIRE 224 144 224 112
WIRE 224 144 176 144
WIRE 208 208 176 208
WIRE 336 224 336 208
WIRE 208 240 208 208
FLAG 208 240 0
FLAG 336 224 0
SYMBOL voltage 336 112 R0
WINDOW 123 0 0 Left 0
WINDOW 39 0 0 Left 0
SYMATTR InstName V1
SYMATTR Value 0
SYMBOL Generic_solar_panel 208 176 R0
SYMATTR Value ISC=200m VOC=1.8 sun={sun}
SYMATTR InstName X1
TEXT 32 96 Left 2 !.dc v1 0 7 1m
TEXT 8 288 Left 2 !.measure ISC FIND I(V1) WHEN V1=0\n.measure VOC FIND V1 WHEN I(V1)=0\n.measure MPP max(I(V1)*v1)\n.measure iv5 find i(v1) when v1=5\n.measure pwr_no_MPP find i(v1)*4 when v1=4\n.measure pwr_with_mpp  max(I(V1)*v1)*.9
TEXT 32 16 Left 0 ;press control-L to get measurment results
TEXT 32 40 Left 2 ;Solar Cell Testbench
TEXT 32 64 Left 2 !*.step temp list 25 50 75
TEXT 32 -24 Left 2 !.step param sun 50m 1 50m
